* +++++++++++++++++++++++++++++++++++++++++++++++++++++++++ *
* CDL Netlist:                                              *
*                                                           *
* Cell Name  : cordic_pipeline                              *
* Netlisted  : Mon Oct 21 14:42:59 2024                     *
* PVS Version: 22.20-p031 Thu Nov 17 19:06:38 PST 2022      *
* +++++++++++++++++++++++++++++++++++++++++++++++++++++++++ *
*.LDD
*.DEVTMPLT 0 MN(nmos1v) _nmos_12 ndiff_conn(D) poly_conn(G) ndiff_conn(S) psubstrate(B)
*.DEVTMPLT 1 MP(pmos1v) _pmos_12 pdiff_conn(D) poly_conn(G) pdiff_conn(S) nwell_conn(B)

* +++++++++++++++++++++++++++++++++++++++++++++++++++++++++ *
* Sub cell: CLKBUFX2                                        *
* +++++++++++++++++++++++++++++++++++++++++++++++++++++++++ *
.subckt CLKBUFX2 Y VDD VSS A
** N=5 EP=4 FDC=6
M0 Y 5 VSS VSS nmos1v L=1e-07 W=4.3e-07 fw=4.3e-07 simw=4.3e-07 $X=710 $Y=830 $dt=0
M1 VSS 5 Y VSS nmos1v L=1e-07 W=4.3e-07 fw=4.3e-07 simw=4.3e-07 $X=1550 $Y=830 $dt=0
M2 5 A VSS VSS nmos1v L=1e-07 W=2.4e-07 fw=2.4e-07 simw=2.4e-07 $X=2390 $Y=1060 $dt=0
M3 Y 5 VDD VDD pmos1v L=1e-07 W=6.5e-07 fw=6.5e-13 simw=6.5e-07 $X=710 $Y=2940 $dt=1
M4 VDD 5 Y VDD pmos1v L=1e-07 W=6.5e-07 fw=6.5e-13 simw=6.5e-07 $X=1550 $Y=2940 $dt=1
M5 5 A VDD VDD pmos1v L=1e-07 W=3.6e-07 fw=3.6e-13 simw=3.6e-07 $X=2390 $Y=3000 $dt=1
.ends CLKBUFX2

* +++++++++++++++++++++++++++++++++++++++++++++++++++++++++ *
* Sub cell: CLKINVX2                                        *
* +++++++++++++++++++++++++++++++++++++++++++++++++++++++++ *
.subckt CLKINVX2 A VDD VSS Y
** N=4 EP=4 FDC=4
M0 Y A VSS VSS nmos1v L=1e-07 W=4.3e-07 fw=4.3e-07 simw=4.3e-07 $X=900 $Y=980 $dt=0
M1 VSS A Y VSS nmos1v L=1e-07 W=4.3e-07 fw=4.3e-07 simw=4.3e-07 $X=1740 $Y=980 $dt=0
M2 Y A VDD VDD pmos1v L=1e-07 W=6.5e-07 fw=6.5e-13 simw=6.5e-07 $X=900 $Y=2720 $dt=1
M3 VDD A Y VDD pmos1v L=1e-07 W=6.5e-07 fw=6.5e-13 simw=6.5e-07 $X=1740 $Y=2720 $dt=1
.ends CLKINVX2

* +++++++++++++++++++++++++++++++++++++++++++++++++++++++++ *
* Sub cell: CLKINVX1                                        *
* +++++++++++++++++++++++++++++++++++++++++++++++++++++++++ *
.subckt CLKINVX1 A Y VDD VSS
** N=4 EP=4 FDC=2
M0 Y A VSS VSS nmos1v L=1e-07 W=4.3e-07 fw=4.3e-07 simw=4.3e-07 $X=710 $Y=870 $dt=0
M1 Y A VDD VDD pmos1v L=1e-07 W=6.5e-07 fw=6.5e-13 simw=6.5e-07 $X=710 $Y=2680 $dt=1
.ends CLKINVX1

* +++++++++++++++++++++++++++++++++++++++++++++++++++++++++ *
* Sub cell: DFFRHQX1                                        *
* +++++++++++++++++++++++++++++++++++++++++++++++++++++++++ *
.subckt DFFRHQX1 Q CK VDD VSS RN D
** N=20 EP=6 FDC=28
M0 VSS 11 Q VSS nmos1v L=1e-07 W=4.3e-07 fw=4.3e-07 simw=4.3e-07 $X=710 $Y=900 $dt=0
M1 7 CK VSS VSS nmos1v L=1e-07 W=2.4e-07 fw=2.4e-07 simw=2.4e-07 $X=1790 $Y=1230 $dt=0
M2 13 12 11 VSS nmos1v L=1e-07 W=3.4e-07 fw=3.4e-07 simw=3.4e-07 $X=3430 $Y=800 $dt=0
M3 VSS RN 13 VSS nmos1v L=1e-07 W=3.4e-07 fw=3.4e-07 simw=3.4e-07 $X=3870 $Y=800 $dt=0
M4 14 11 VSS VSS nmos1v L=1e-07 W=3.4e-07 fw=3.4e-07 simw=3.4e-07 $X=5150 $Y=800 $dt=0
M5 12 7 14 VSS nmos1v L=1e-07 W=3.4e-07 fw=3.4e-07 simw=3.4e-07 $X=5870 $Y=800 $dt=0
M6 9 8 12 VSS nmos1v L=1e-07 W=3.4e-07 fw=3.4e-07 simw=3.4e-07 $X=7390 $Y=880 $dt=0
M7 VSS 10 9 VSS nmos1v L=1e-07 W=3.4e-07 fw=3.4e-07 simw=3.4e-07 $X=8350 $Y=880 $dt=0
M8 15 RN VSS VSS nmos1v L=1e-07 W=3.4e-07 fw=3.4e-07 simw=3.4e-07 $X=9670 $Y=880 $dt=0
M9 16 9 15 VSS nmos1v L=1e-07 W=3.4e-07 fw=3.4e-07 simw=3.4e-07 $X=10110 $Y=880 $dt=0
M10 10 8 16 VSS nmos1v L=1e-07 W=3.4e-07 fw=3.4e-07 simw=3.4e-07 $X=11030 $Y=880 $dt=0
M11 17 7 10 VSS nmos1v L=1e-07 W=3.4e-07 fw=3.4e-07 simw=3.4e-07 $X=11870 $Y=880 $dt=0
M12 VSS D 17 VSS nmos1v L=1e-07 W=3.4e-07 fw=3.4e-07 simw=3.4e-07 $X=12310 $Y=880 $dt=0
M13 8 7 VSS VSS nmos1v L=1e-07 W=2.4e-07 fw=2.4e-07 simw=2.4e-07 $X=14630 $Y=800 $dt=0
M14 VDD 11 Q VDD pmos1v L=1e-07 W=6.5e-07 fw=6.5e-13 simw=6.5e-07 $X=710 $Y=2680 $dt=1
M15 7 CK VDD VDD pmos1v L=1e-07 W=3.6e-07 fw=3.6e-13 simw=3.6e-07 $X=1550 $Y=3000 $dt=1
M16 11 12 VDD VDD pmos1v L=1e-07 W=5.2e-07 fw=5.2e-13 simw=5.2e-07 $X=3430 $Y=3080 $dt=1
M17 VDD RN 11 VDD pmos1v L=1e-07 W=5.2e-07 fw=5.2e-13 simw=5.2e-07 $X=4270 $Y=3080 $dt=1
M18 19 11 VDD VDD pmos1v L=1e-07 W=5.2e-07 fw=5.2e-13 simw=5.2e-07 $X=5510 $Y=2940 $dt=1
M19 12 8 19 VDD pmos1v L=1e-07 W=5.2e-07 fw=5.2e-13 simw=5.2e-07 $X=5950 $Y=2940 $dt=1
M20 9 7 12 VDD pmos1v L=1e-07 W=5.2e-07 fw=5.2e-13 simw=5.2e-07 $X=6910 $Y=2940 $dt=1
M21 VDD 10 9 VDD pmos1v L=1e-07 W=5.2e-07 fw=5.2e-13 simw=5.2e-07 $X=7750 $Y=2940 $dt=1
M22 18 RN VDD VDD pmos1v L=1e-07 W=5.2e-07 fw=5.2e-13 simw=5.2e-07 $X=9150 $Y=2940 $dt=1
M23 VDD 9 18 VDD pmos1v L=1e-07 W=5.2e-07 fw=5.2e-13 simw=5.2e-07 $X=9990 $Y=3380 $dt=1
M24 10 7 18 VDD pmos1v L=1e-07 W=5.2e-07 fw=5.2e-13 simw=5.2e-07 $X=11990 $Y=3040 $dt=1
M25 20 8 10 VDD pmos1v L=1e-07 W=5.2e-07 fw=5.2e-13 simw=5.2e-07 $X=12950 $Y=3340 $dt=1
M26 VDD D 20 VDD pmos1v L=1e-07 W=5.2e-07 fw=5.2e-13 simw=5.2e-07 $X=13550 $Y=3340 $dt=1
M27 8 7 VDD VDD pmos1v L=1e-07 W=3.6e-07 fw=3.6e-13 simw=3.6e-07 $X=14630 $Y=3140 $dt=1
.ends DFFRHQX1

* +++++++++++++++++++++++++++++++++++++++++++++++++++++++++ *
* Sub cell: SDFFRHQX1                                       *
* +++++++++++++++++++++++++++++++++++++++++++++++++++++++++ *
.subckt SDFFRHQX1 Q CK VDD VSS RN D SI SE
** N=26 EP=8 FDC=36
M0 VSS 14 Q VSS nmos1v L=1e-07 W=4.3e-07 fw=4.3e-07 simw=4.3e-07 $X=710 $Y=980 $dt=0
M1 10 CK VSS VSS nmos1v L=1e-07 W=2.4e-07 fw=2.4e-07 simw=2.4e-07 $X=1670 $Y=1360 $dt=0
M2 16 15 14 VSS nmos1v L=1e-07 W=3.4e-07 fw=3.4e-07 simw=3.4e-07 $X=3410 $Y=880 $dt=0
M3 VSS RN 16 VSS nmos1v L=1e-07 W=3.4e-07 fw=3.4e-07 simw=3.4e-07 $X=4170 $Y=880 $dt=0
M4 17 14 VSS VSS nmos1v L=1e-07 W=3.4e-07 fw=3.4e-07 simw=3.4e-07 $X=5250 $Y=880 $dt=0
M5 15 10 17 VSS nmos1v L=1e-07 W=3.4e-07 fw=3.4e-07 simw=3.4e-07 $X=5890 $Y=880 $dt=0
M6 12 11 15 VSS nmos1v L=1e-07 W=3.4e-07 fw=3.4e-07 simw=3.4e-07 $X=7570 $Y=880 $dt=0
M7 VSS 13 12 VSS nmos1v L=1e-07 W=3.4e-07 fw=3.4e-07 simw=3.4e-07 $X=8690 $Y=880 $dt=0
M8 18 RN VSS VSS nmos1v L=1e-07 W=3.4e-07 fw=3.4e-07 simw=3.4e-07 $X=9930 $Y=880 $dt=0
M9 19 12 18 VSS nmos1v L=1e-07 W=3.4e-07 fw=3.4e-07 simw=3.4e-07 $X=10370 $Y=880 $dt=0
M10 13 11 19 VSS nmos1v L=1e-07 W=3.4e-07 fw=3.4e-07 simw=3.4e-07 $X=10810 $Y=880 $dt=0
M11 20 10 13 VSS nmos1v L=1e-07 W=3.4e-07 fw=3.4e-07 simw=3.4e-07 $X=11650 $Y=880 $dt=0
M12 VSS 10 11 VSS nmos1v L=1e-07 W=2.4e-07 fw=2.4e-07 simw=2.4e-07 $X=14090 $Y=1180 $dt=0
M13 21 D VSS VSS nmos1v L=1e-07 W=4.3e-07 fw=4.3e-07 simw=4.3e-07 $X=15050 $Y=800 $dt=0
M14 20 9 21 VSS nmos1v L=1e-07 W=4.3e-07 fw=4.3e-07 simw=4.3e-07 $X=16010 $Y=800 $dt=0
M15 22 SE 20 VSS nmos1v L=1e-07 W=4.3e-07 fw=4.3e-07 simw=4.3e-07 $X=16850 $Y=800 $dt=0
M16 VSS SI 22 VSS nmos1v L=1e-07 W=4.3e-07 fw=4.3e-07 simw=4.3e-07 $X=17290 $Y=800 $dt=0
M17 9 SE VSS VSS nmos1v L=1e-07 W=2.4e-07 fw=2.4e-07 simw=2.4e-07 $X=18130 $Y=1160 $dt=0
M18 VDD 14 Q VDD pmos1v L=1e-07 W=6.5e-07 fw=6.5e-13 simw=6.5e-07 $X=710 $Y=2720 $dt=1
M19 10 CK VDD VDD pmos1v L=1e-07 W=3.6e-07 fw=3.6e-13 simw=3.6e-07 $X=1550 $Y=3110 $dt=1
M20 14 15 VDD VDD pmos1v L=1e-07 W=5.2e-07 fw=5.2e-13 simw=5.2e-07 $X=3410 $Y=2940 $dt=1
M21 VDD RN 14 VDD pmos1v L=1e-07 W=5.2e-07 fw=5.2e-13 simw=5.2e-07 $X=4330 $Y=2940 $dt=1
M22 23 14 VDD VDD pmos1v L=1e-07 W=5.2e-07 fw=5.2e-13 simw=5.2e-07 $X=5450 $Y=2940 $dt=1
M23 15 11 23 VDD pmos1v L=1e-07 W=5.2e-07 fw=5.2e-13 simw=5.2e-07 $X=5890 $Y=2940 $dt=1
M24 12 10 15 VDD pmos1v L=1e-07 W=5.2e-07 fw=5.2e-13 simw=5.2e-07 $X=6850 $Y=2940 $dt=1
M25 VDD 13 12 VDD pmos1v L=1e-07 W=5.2e-07 fw=5.2e-13 simw=5.2e-07 $X=7810 $Y=2940 $dt=1
M26 24 RN VDD VDD pmos1v L=1e-07 W=5.2e-07 fw=5.2e-13 simw=5.2e-07 $X=9130 $Y=2940 $dt=1
M27 VDD 12 24 VDD pmos1v L=1e-07 W=5.2e-07 fw=5.2e-13 simw=5.2e-07 $X=9970 $Y=2940 $dt=1
M28 13 10 24 VDD pmos1v L=1e-07 W=5.2e-07 fw=5.2e-13 simw=5.2e-07 $X=11710 $Y=2840 $dt=1
M29 20 11 13 VDD pmos1v L=1e-07 W=5.2e-07 fw=5.2e-13 simw=5.2e-07 $X=12550 $Y=2840 $dt=1
M30 VDD 10 11 VDD pmos1v L=1e-07 W=3.6e-07 fw=3.6e-13 simw=3.6e-07 $X=14170 $Y=3120 $dt=1
M31 25 D VDD VDD pmos1v L=1e-07 W=6.5e-07 fw=6.5e-13 simw=6.5e-07 $X=15050 $Y=3120 $dt=1
M32 20 SE 25 VDD pmos1v L=1e-07 W=6.5e-07 fw=6.5e-13 simw=6.5e-07 $X=15490 $Y=3120 $dt=1
M33 26 9 20 VDD pmos1v L=1e-07 W=6.5e-07 fw=6.5e-13 simw=6.5e-07 $X=16330 $Y=3120 $dt=1
M34 VDD SI 26 VDD pmos1v L=1e-07 W=6.5e-07 fw=6.5e-13 simw=6.5e-07 $X=16970 $Y=3120 $dt=1
M35 9 SE VDD VDD pmos1v L=1e-07 W=3.6e-07 fw=3.6e-13 simw=3.6e-07 $X=18010 $Y=3120 $dt=1
.ends SDFFRHQX1

* +++++++++++++++++++++++++++++++++++++++++++++++++++++++++ *
* Sub cell: DFFRX1                                          *
* +++++++++++++++++++++++++++++++++++++++++++++++++++++++++ *
.subckt DFFRX1 QN VDD VSS Q CK RN D
** N=22 EP=7 FDC=32
M0 VSS 14 QN VSS nmos1v L=1e-07 W=4.3e-07 fw=4.3e-07 simw=4.3e-07 $X=710 $Y=980 $dt=0
M1 14 12 VSS VSS nmos1v L=1e-07 W=2.4e-07 fw=2.4e-07 simw=2.4e-07 $X=1570 $Y=1360 $dt=0
M2 VSS 12 Q VSS nmos1v L=1e-07 W=4.3e-07 fw=4.3e-07 simw=4.3e-07 $X=3190 $Y=840 $dt=0
M3 8 CK VSS VSS nmos1v L=1e-07 W=2.4e-07 fw=2.4e-07 simw=2.4e-07 $X=4270 $Y=1220 $dt=0
M4 15 13 12 VSS nmos1v L=1e-07 W=2.4e-07 fw=2.4e-07 simw=2.4e-07 $X=5910 $Y=1100 $dt=0
M5 VSS RN 15 VSS nmos1v L=1e-07 W=2.4e-07 fw=2.4e-07 simw=2.4e-07 $X=6350 $Y=1100 $dt=0
M6 16 12 VSS VSS nmos1v L=1e-07 W=2.4e-07 fw=2.4e-07 simw=2.4e-07 $X=7730 $Y=1100 $dt=0
M7 13 8 16 VSS nmos1v L=1e-07 W=2.4e-07 fw=2.4e-07 simw=2.4e-07 $X=8170 $Y=1100 $dt=0
M8 10 9 13 VSS nmos1v L=1e-07 W=2.4e-07 fw=2.4e-07 simw=2.4e-07 $X=9070 $Y=1100 $dt=0
M9 VSS 11 10 VSS nmos1v L=1e-07 W=2.4e-07 fw=2.4e-07 simw=2.4e-07 $X=10210 $Y=1100 $dt=0
M10 17 RN VSS VSS nmos1v L=1e-07 W=2.4e-07 fw=2.4e-07 simw=2.4e-07 $X=11530 $Y=1240 $dt=0
M11 18 10 17 VSS nmos1v L=1e-07 W=2.4e-07 fw=2.4e-07 simw=2.4e-07 $X=12030 $Y=1240 $dt=0
M12 11 9 18 VSS nmos1v L=1e-07 W=2.4e-07 fw=2.4e-07 simw=2.4e-07 $X=12690 $Y=1240 $dt=0
M13 19 8 11 VSS nmos1v L=1e-07 W=2.4e-07 fw=2.4e-07 simw=2.4e-07 $X=13530 $Y=1240 $dt=0
M14 VSS D 19 VSS nmos1v L=1e-07 W=2.4e-07 fw=2.4e-07 simw=2.4e-07 $X=13970 $Y=1240 $dt=0
M15 9 8 VSS VSS nmos1v L=1e-07 W=2.4e-07 fw=2.4e-07 simw=2.4e-07 $X=15250 $Y=1240 $dt=0
M16 VDD 14 QN VDD pmos1v L=1e-07 W=6.5e-07 fw=6.5e-13 simw=6.5e-07 $X=710 $Y=2680 $dt=1
M17 14 12 VDD VDD pmos1v L=1e-07 W=3.6e-07 fw=3.6e-13 simw=3.6e-07 $X=1550 $Y=2680 $dt=1
M18 VDD 12 Q VDD pmos1v L=1e-07 W=6.5e-07 fw=6.5e-13 simw=6.5e-07 $X=3010 $Y=3120 $dt=1
M19 8 CK VDD VDD pmos1v L=1e-07 W=3.6e-07 fw=3.6e-13 simw=3.6e-07 $X=3850 $Y=3120 $dt=1
M20 12 13 VDD VDD pmos1v L=1e-07 W=3.6e-07 fw=3.6e-13 simw=3.6e-07 $X=5510 $Y=3020 $dt=1
M21 VDD RN 12 VDD pmos1v L=1e-07 W=3.6e-07 fw=3.6e-13 simw=3.6e-07 $X=6350 $Y=3020 $dt=1
M22 20 12 VDD VDD pmos1v L=1e-07 W=3.6e-07 fw=3.6e-13 simw=3.6e-07 $X=7350 $Y=3020 $dt=1
M23 13 9 20 VDD pmos1v L=1e-07 W=3.6e-07 fw=3.6e-13 simw=3.6e-07 $X=7790 $Y=3020 $dt=1
M24 10 8 13 VDD pmos1v L=1e-07 W=3.6e-07 fw=3.6e-13 simw=3.6e-07 $X=8630 $Y=3020 $dt=1
M25 VDD 11 10 VDD pmos1v L=1e-07 W=3.6e-07 fw=3.6e-13 simw=3.6e-07 $X=10230 $Y=3020 $dt=1
M26 21 RN VDD VDD pmos1v L=1e-07 W=3.6e-07 fw=3.6e-13 simw=3.6e-07 $X=11190 $Y=3020 $dt=1
M27 VDD 10 21 VDD pmos1v L=1e-07 W=3.6e-07 fw=3.6e-13 simw=3.6e-07 $X=12030 $Y=3020 $dt=1
M28 11 8 21 VDD pmos1v L=1e-07 W=3.6e-07 fw=3.6e-13 simw=3.6e-07 $X=13530 $Y=3260 $dt=1
M29 22 9 11 VDD pmos1v L=1e-07 W=3.6e-07 fw=3.6e-13 simw=3.6e-07 $X=14370 $Y=3260 $dt=1
M30 VDD D 22 VDD pmos1v L=1e-07 W=3.6e-07 fw=3.6e-13 simw=3.6e-07 $X=14810 $Y=3260 $dt=1
M31 9 8 VDD VDD pmos1v L=1e-07 W=3.6e-07 fw=3.6e-13 simw=3.6e-07 $X=15890 $Y=3140 $dt=1
.ends DFFRX1

* +++++++++++++++++++++++++++++++++++++++++++++++++++++++++ *
* Sub cell: SDFFRXL                                         *
* +++++++++++++++++++++++++++++++++++++++++++++++++++++++++ *
.subckt SDFFRXL QN VDD VSS Q CK RN D SE SI
** N=28 EP=9 FDC=40
M0 VSS 17 QN VSS nmos1v L=1e-07 W=2.4e-07 fw=2.4e-07 simw=2.4e-07 $X=710 $Y=1360 $dt=0
M1 17 15 VSS VSS nmos1v L=1e-07 W=2.4e-07 fw=2.4e-07 simw=2.4e-07 $X=1570 $Y=1360 $dt=0
M2 VSS 15 Q VSS nmos1v L=1e-07 W=2.4e-07 fw=2.4e-07 simw=2.4e-07 $X=3190 $Y=1360 $dt=0
M3 11 CK VSS VSS nmos1v L=1e-07 W=2.4e-07 fw=2.4e-07 simw=2.4e-07 $X=4110 $Y=1360 $dt=0
M4 18 16 15 VSS nmos1v L=1e-07 W=2.4e-07 fw=2.4e-07 simw=2.4e-07 $X=5750 $Y=1240 $dt=0
M5 VSS RN 18 VSS nmos1v L=1e-07 W=2.4e-07 fw=2.4e-07 simw=2.4e-07 $X=6190 $Y=1240 $dt=0
M6 19 15 VSS VSS nmos1v L=1e-07 W=2.4e-07 fw=2.4e-07 simw=2.4e-07 $X=7270 $Y=1240 $dt=0
M7 16 11 19 VSS nmos1v L=1e-07 W=2.4e-07 fw=2.4e-07 simw=2.4e-07 $X=7910 $Y=1240 $dt=0
M8 13 12 16 VSS nmos1v L=1e-07 W=2.4e-07 fw=2.4e-07 simw=2.4e-07 $X=9230 $Y=1240 $dt=0
M9 VSS 14 13 VSS nmos1v L=1e-07 W=2.4e-07 fw=2.4e-07 simw=2.4e-07 $X=10310 $Y=1240 $dt=0
M10 20 RN VSS VSS nmos1v L=1e-07 W=2.4e-07 fw=2.4e-07 simw=2.4e-07 $X=11390 $Y=1240 $dt=0
M11 21 13 20 VSS nmos1v L=1e-07 W=2.4e-07 fw=2.4e-07 simw=2.4e-07 $X=11830 $Y=1240 $dt=0
M12 14 12 21 VSS nmos1v L=1e-07 W=2.4e-07 fw=2.4e-07 simw=2.4e-07 $X=12550 $Y=1240 $dt=0
M13 22 11 14 VSS nmos1v L=1e-07 W=2.4e-07 fw=2.4e-07 simw=2.4e-07 $X=13390 $Y=1240 $dt=0
M14 VSS 11 12 VSS nmos1v L=1e-07 W=2.4e-07 fw=2.4e-07 simw=2.4e-07 $X=15550 $Y=800 $dt=0
M15 23 D VSS VSS nmos1v L=1e-07 W=2.4e-07 fw=2.4e-07 simw=2.4e-07 $X=16510 $Y=800 $dt=0
M16 22 10 23 VSS nmos1v L=1e-07 W=2.4e-07 fw=2.4e-07 simw=2.4e-07 $X=17390 $Y=800 $dt=0
M17 24 SE 22 VSS nmos1v L=1e-07 W=2.4e-07 fw=2.4e-07 simw=2.4e-07 $X=18230 $Y=800 $dt=0
M18 VSS SI 24 VSS nmos1v L=1e-07 W=2.4e-07 fw=2.4e-07 simw=2.4e-07 $X=18670 $Y=800 $dt=0
M19 10 SE VSS VSS nmos1v L=1e-07 W=2.4e-07 fw=2.4e-07 simw=2.4e-07 $X=19510 $Y=800 $dt=0
M20 VDD 17 QN VDD pmos1v L=1e-07 W=3.6e-07 fw=3.6e-13 simw=3.6e-07 $X=710 $Y=2680 $dt=1
M21 17 15 VDD VDD pmos1v L=1e-07 W=3.6e-07 fw=3.6e-13 simw=3.6e-07 $X=1790 $Y=2680 $dt=1
M22 VDD 15 Q VDD pmos1v L=1e-07 W=3.6e-07 fw=3.6e-13 simw=3.6e-07 $X=3110 $Y=3700 $dt=1
M23 11 CK VDD VDD pmos1v L=1e-07 W=3.6e-07 fw=3.6e-13 simw=3.6e-07 $X=3950 $Y=3700 $dt=1
M24 15 16 VDD VDD pmos1v L=1e-07 W=3.6e-07 fw=3.6e-13 simw=3.6e-07 $X=5690 $Y=3020 $dt=1
M25 VDD RN 15 VDD pmos1v L=1e-07 W=3.6e-07 fw=3.6e-13 simw=3.6e-07 $X=6530 $Y=3020 $dt=1
M26 25 15 VDD VDD pmos1v L=1e-07 W=3.6e-07 fw=3.6e-13 simw=3.6e-07 $X=7550 $Y=3020 $dt=1
M27 16 12 25 VDD pmos1v L=1e-07 W=3.6e-07 fw=3.6e-13 simw=3.6e-07 $X=7990 $Y=3020 $dt=1
M28 13 11 16 VDD pmos1v L=1e-07 W=3.6e-07 fw=3.6e-13 simw=3.6e-07 $X=9150 $Y=3020 $dt=1
M29 VDD 14 13 VDD pmos1v L=1e-07 W=3.6e-07 fw=3.6e-13 simw=3.6e-07 $X=10030 $Y=3020 $dt=1
M30 26 RN VDD VDD pmos1v L=1e-07 W=3.6e-07 fw=3.6e-13 simw=3.6e-07 $X=10870 $Y=3020 $dt=1
M31 VDD 13 26 VDD pmos1v L=1e-07 W=3.6e-07 fw=3.6e-13 simw=3.6e-07 $X=11710 $Y=3020 $dt=1
M32 14 11 26 VDD pmos1v L=1e-07 W=3.6e-07 fw=3.6e-13 simw=3.6e-07 $X=13210 $Y=2720 $dt=1
M33 22 12 14 VDD pmos1v L=1e-07 W=3.6e-07 fw=3.6e-13 simw=3.6e-07 $X=14050 $Y=2720 $dt=1
M34 VDD 11 12 VDD pmos1v L=1e-07 W=3.6e-07 fw=3.6e-13 simw=3.6e-07 $X=15670 $Y=2880 $dt=1
M35 27 D VDD VDD pmos1v L=1e-07 W=3.6e-07 fw=3.6e-13 simw=3.6e-07 $X=16510 $Y=2880 $dt=1
M36 22 SE 27 VDD pmos1v L=1e-07 W=3.6e-07 fw=3.6e-13 simw=3.6e-07 $X=16950 $Y=2880 $dt=1
M37 28 10 22 VDD pmos1v L=1e-07 W=3.6e-07 fw=3.6e-13 simw=3.6e-07 $X=17790 $Y=2880 $dt=1
M38 VDD SI 28 VDD pmos1v L=1e-07 W=3.6e-07 fw=3.6e-13 simw=3.6e-07 $X=18670 $Y=2880 $dt=1
M39 10 SE VDD VDD pmos1v L=1e-07 W=3.6e-07 fw=3.6e-13 simw=3.6e-07 $X=19510 $Y=2880 $dt=1
.ends SDFFRXL

* +++++++++++++++++++++++++++++++++++++++++++++++++++++++++ *
* Sub cell: XNOR3X1                                         *
* +++++++++++++++++++++++++++++++++++++++++++++++++++++++++ *
.subckt XNOR3X1 A B VDD VSS C Y
** N=13 EP=6 FDC=22
M0 VSS A 11 VSS nmos1v L=1e-07 W=3.4e-07 fw=3.4e-07 simw=3.4e-07 $X=970 $Y=800 $dt=0
M1 10 B VSS VSS nmos1v L=1e-07 W=3.2e-07 fw=3.2e-07 simw=3.2e-07 $X=2050 $Y=800 $dt=0
M2 9 11 VSS VSS nmos1v L=1e-07 W=3.2e-07 fw=3.2e-07 simw=3.2e-07 $X=4410 $Y=800 $dt=0
M3 12 B 9 VSS nmos1v L=1e-07 W=3.2e-07 fw=3.2e-07 simw=3.2e-07 $X=5490 $Y=800 $dt=0
M4 11 10 12 VSS nmos1v L=1e-07 W=3.4e-07 fw=3.4e-07 simw=3.4e-07 $X=7270 $Y=800 $dt=0
M5 13 B 11 VSS nmos1v L=1e-07 W=3.4e-07 fw=3.4e-07 simw=3.4e-07 $X=8680 $Y=800 $dt=0
M6 9 10 13 VSS nmos1v L=1e-07 W=3.4e-07 fw=3.4e-07 simw=3.4e-07 $X=9760 $Y=800 $dt=0
M7 7 C 12 VSS nmos1v L=1e-07 W=3.2e-07 fw=3.2e-07 simw=3.2e-07 $X=12120 $Y=800 $dt=0
M8 13 8 7 VSS nmos1v L=1e-07 W=3.2e-07 fw=3.2e-07 simw=3.2e-07 $X=13200 $Y=800 $dt=0
M9 VSS C 8 VSS nmos1v L=1e-07 W=3.2e-07 fw=3.2e-07 simw=3.2e-07 $X=15060 $Y=800 $dt=0
M10 Y 7 VSS VSS nmos1v L=1e-07 W=3.4e-07 fw=3.4e-07 simw=3.4e-07 $X=16140 $Y=800 $dt=0
M11 VDD A 11 VDD pmos1v L=1e-07 W=6.5e-07 fw=6.5e-13 simw=6.5e-07 $X=970 $Y=3120 $dt=1
M12 10 B VDD VDD pmos1v L=1e-07 W=5.2e-07 fw=5.2e-13 simw=5.2e-07 $X=2050 $Y=3380 $dt=1
M13 9 11 VDD VDD pmos1v L=1e-07 W=5.2e-07 fw=5.2e-13 simw=5.2e-07 $X=4410 $Y=3380 $dt=1
M14 12 10 9 VDD pmos1v L=1e-07 W=5.2e-07 fw=5.2e-13 simw=5.2e-07 $X=5490 $Y=3380 $dt=1
M15 11 B 12 VDD pmos1v L=1e-07 W=6.5e-07 fw=6.5e-13 simw=6.5e-07 $X=6650 $Y=3080 $dt=1
M16 13 10 11 VDD pmos1v L=1e-07 W=6.5e-07 fw=6.5e-13 simw=6.5e-07 $X=8150 $Y=2680 $dt=1
M17 9 B 13 VDD pmos1v L=1e-07 W=5.2e-07 fw=5.2e-13 simw=5.2e-07 $X=9750 $Y=3340 $dt=1
M18 7 8 12 VDD pmos1v L=1e-07 W=5.2e-07 fw=5.2e-13 simw=5.2e-07 $X=12120 $Y=3380 $dt=1
M19 13 C 7 VDD pmos1v L=1e-07 W=5.2e-07 fw=5.2e-13 simw=5.2e-07 $X=13200 $Y=3380 $dt=1
M20 VDD C 8 VDD pmos1v L=1e-07 W=5.2e-07 fw=5.2e-13 simw=5.2e-07 $X=15060 $Y=3380 $dt=1
M21 Y 7 VDD VDD pmos1v L=1e-07 W=6.5e-07 fw=6.5e-13 simw=6.5e-07 $X=16140 $Y=3120 $dt=1
.ends XNOR3X1

* +++++++++++++++++++++++++++++++++++++++++++++++++++++++++ *
* Sub cell: OAI221XL                                        *
* +++++++++++++++++++++++++++++++++++++++++++++++++++++++++ *
.subckt OAI221XL A0 VDD VSS A1 B1 Y B0 C0
** N=12 EP=8 FDC=10
M0 9 A0 VSS VSS nmos1v L=1e-07 W=2.4e-07 fw=2.4e-07 simw=2.4e-07 $X=640 $Y=1320 $dt=0
M1 VSS A1 9 VSS nmos1v L=1e-07 W=2.4e-07 fw=2.4e-07 simw=2.4e-07 $X=1480 $Y=1320 $dt=0
M2 9 B1 10 VSS nmos1v L=1e-07 W=2.4e-07 fw=2.4e-07 simw=2.4e-07 $X=2980 $Y=1360 $dt=0
M3 10 B0 9 VSS nmos1v L=1e-07 W=2.4e-07 fw=2.4e-07 simw=2.4e-07 $X=3820 $Y=1360 $dt=0
M4 Y C0 10 VSS nmos1v L=1e-07 W=2.4e-07 fw=2.4e-07 simw=2.4e-07 $X=4660 $Y=1360 $dt=0
M5 11 A0 VDD VDD pmos1v L=1e-07 W=3.6e-07 fw=3.6e-13 simw=3.6e-07 $X=1040 $Y=3410 $dt=1
M6 Y A1 11 VDD pmos1v L=1e-07 W=3.6e-07 fw=3.6e-13 simw=3.6e-07 $X=1480 $Y=3410 $dt=1
M7 12 B1 Y VDD pmos1v L=1e-07 W=3.6e-07 fw=3.6e-13 simw=3.6e-07 $X=2480 $Y=3410 $dt=1
M8 VDD B0 12 VDD pmos1v L=1e-07 W=3.6e-07 fw=3.6e-13 simw=3.6e-07 $X=2920 $Y=3410 $dt=1
M9 Y C0 VDD VDD pmos1v L=1e-07 W=3.6e-07 fw=3.6e-13 simw=3.6e-07 $X=4180 $Y=3410 $dt=1
.ends OAI221XL

* +++++++++++++++++++++++++++++++++++++++++++++++++++++++++ *
* Sub cell: OR3X1                                           *
* +++++++++++++++++++++++++++++++++++++++++++++++++++++++++ *
.subckt OR3X1 C B VDD VSS A Y
** N=9 EP=6 FDC=8
M0 VSS C 7 VSS nmos1v L=1e-07 W=2.4e-07 fw=2.4e-07 simw=2.4e-07 $X=710 $Y=800 $dt=0
M1 7 B VSS VSS nmos1v L=1e-07 W=2.4e-07 fw=2.4e-07 simw=2.4e-07 $X=1550 $Y=800 $dt=0
M2 VSS A 7 VSS nmos1v L=1e-07 W=2.4e-07 fw=2.4e-07 simw=2.4e-07 $X=2390 $Y=800 $dt=0
M3 Y 7 VSS VSS nmos1v L=1e-07 W=4.3e-07 fw=4.3e-07 simw=4.3e-07 $X=3230 $Y=800 $dt=0
M4 8 C 7 VDD pmos1v L=1e-07 W=3.6e-07 fw=3.6e-13 simw=3.6e-07 $X=870 $Y=2850 $dt=1
M5 9 B 8 VDD pmos1v L=1e-07 W=3.6e-07 fw=3.6e-13 simw=3.6e-07 $X=1550 $Y=2850 $dt=1
M6 VDD A 9 VDD pmos1v L=1e-07 W=3.6e-07 fw=3.6e-13 simw=3.6e-07 $X=2230 $Y=2850 $dt=1
M7 Y 7 VDD VDD pmos1v L=1e-07 W=6.5e-07 fw=6.5e-13 simw=6.5e-07 $X=3190 $Y=2680 $dt=1
.ends OR3X1

* +++++++++++++++++++++++++++++++++++++++++++++++++++++++++ *
* Sub cell: OAI211XL                                        *
* +++++++++++++++++++++++++++++++++++++++++++++++++++++++++ *
.subckt OAI211XL A0 VDD VSS Y A1 B0 C0
** N=10 EP=7 FDC=8
M0 VSS A0 8 VSS nmos1v L=1e-07 W=2.4e-07 fw=2.4e-07 simw=2.4e-07 $X=710 $Y=1140 $dt=0
M1 8 A1 VSS VSS nmos1v L=1e-07 W=2.4e-07 fw=2.4e-07 simw=2.4e-07 $X=1550 $Y=1140 $dt=0
M2 9 B0 8 VSS nmos1v L=1e-07 W=2.4e-07 fw=2.4e-07 simw=2.4e-07 $X=2390 $Y=1140 $dt=0
M3 Y C0 9 VSS nmos1v L=1e-07 W=2.4e-07 fw=2.4e-07 simw=2.4e-07 $X=2830 $Y=1140 $dt=0
M4 10 A0 VDD VDD pmos1v L=1e-07 W=3.6e-07 fw=3.6e-13 simw=3.6e-07 $X=820 $Y=3180 $dt=1
M5 Y A1 10 VDD pmos1v L=1e-07 W=3.6e-07 fw=3.6e-13 simw=3.6e-07 $X=1260 $Y=3180 $dt=1
M6 VDD B0 Y VDD pmos1v L=1e-07 W=3.6e-07 fw=3.6e-13 simw=3.6e-07 $X=2100 $Y=3180 $dt=1
M7 Y C0 VDD VDD pmos1v L=1e-07 W=3.6e-07 fw=3.6e-13 simw=3.6e-07 $X=3150 $Y=3180 $dt=1
.ends OAI211XL

* +++++++++++++++++++++++++++++++++++++++++++++++++++++++++ *
* Sub cell: OAI32XL                                         *
* +++++++++++++++++++++++++++++++++++++++++++++++++++++++++ *
.subckt OAI32XL A0 VDD VSS A1 A2 Y B1 B0
** N=12 EP=8 FDC=10
M0 9 A0 VSS VSS nmos1v L=1e-07 W=2.4e-07 fw=2.4e-07 simw=2.4e-07 $X=840 $Y=1270 $dt=0
M1 VSS A1 9 VSS nmos1v L=1e-07 W=2.4e-07 fw=2.4e-07 simw=2.4e-07 $X=1680 $Y=1270 $dt=0
M2 9 A2 VSS VSS nmos1v L=1e-07 W=2.4e-07 fw=2.4e-07 simw=2.4e-07 $X=2520 $Y=1270 $dt=0
M3 Y B1 9 VSS nmos1v L=1e-07 W=2.4e-07 fw=2.4e-07 simw=2.4e-07 $X=3360 $Y=1270 $dt=0
M4 9 B0 Y VSS nmos1v L=1e-07 W=2.4e-07 fw=2.4e-07 simw=2.4e-07 $X=4200 $Y=1270 $dt=0
M5 10 A0 VDD VDD pmos1v L=1e-07 W=3.6e-07 fw=3.6e-13 simw=3.6e-07 $X=840 $Y=3510 $dt=1
M6 11 A1 10 VDD pmos1v L=1e-07 W=3.6e-07 fw=3.6e-13 simw=3.6e-07 $X=1680 $Y=3510 $dt=1
M7 Y A2 11 VDD pmos1v L=1e-07 W=3.6e-07 fw=3.6e-13 simw=3.6e-07 $X=2520 $Y=3510 $dt=1
M8 12 B1 Y VDD pmos1v L=1e-07 W=3.6e-07 fw=3.6e-13 simw=3.6e-07 $X=3610 $Y=3510 $dt=1
M9 VDD B0 12 VDD pmos1v L=1e-07 W=3.6e-07 fw=3.6e-13 simw=3.6e-07 $X=4250 $Y=3510 $dt=1
.ends OAI32XL

* +++++++++++++++++++++++++++++++++++++++++++++++++++++++++ *
* Sub cell: OR2X1                                           *
* +++++++++++++++++++++++++++++++++++++++++++++++++++++++++ *
.subckt OR2X1 B VDD VSS A Y
** N=7 EP=5 FDC=6
M0 6 B VSS VSS nmos1v L=1e-07 W=2.4e-07 fw=2.4e-07 simw=2.4e-07 $X=770 $Y=1320 $dt=0
M1 VSS A 6 VSS nmos1v L=1e-07 W=2.4e-07 fw=2.4e-07 simw=2.4e-07 $X=1610 $Y=1320 $dt=0
M2 Y 6 VSS VSS nmos1v L=1e-07 W=4.3e-07 fw=4.3e-07 simw=4.3e-07 $X=2570 $Y=940 $dt=0
M3 7 B 6 VDD pmos1v L=1e-07 W=3.6e-07 fw=3.6e-13 simw=3.6e-07 $X=1170 $Y=3100 $dt=1
M4 VDD A 7 VDD pmos1v L=1e-07 W=3.6e-07 fw=3.6e-13 simw=3.6e-07 $X=1610 $Y=3100 $dt=1
M5 Y 6 VDD VDD pmos1v L=1e-07 W=6.5e-07 fw=6.5e-13 simw=6.5e-07 $X=2570 $Y=3100 $dt=1
.ends OR2X1

* +++++++++++++++++++++++++++++++++++++++++++++++++++++++++ *
* Sub cell: NOR2BXL                                         *
* +++++++++++++++++++++++++++++++++++++++++++++++++++++++++ *
.subckt NOR2BXL Y B VDD VSS AN
** N=7 EP=5 FDC=6
M0 Y B VSS VSS nmos1v L=1e-07 W=2.4e-07 fw=2.4e-07 simw=2.4e-07 $X=710 $Y=800 $dt=0
M1 VSS 6 Y VSS nmos1v L=1e-07 W=2.4e-07 fw=2.4e-07 simw=2.4e-07 $X=1550 $Y=800 $dt=0
M2 6 AN VSS VSS nmos1v L=1e-07 W=2.4e-07 fw=2.4e-07 simw=2.4e-07 $X=2390 $Y=800 $dt=0
M3 7 B Y VDD pmos1v L=1e-07 W=3.6e-07 fw=3.6e-13 simw=3.6e-07 $X=1110 $Y=2980 $dt=1
M4 VDD 6 7 VDD pmos1v L=1e-07 W=3.6e-07 fw=3.6e-13 simw=3.6e-07 $X=1550 $Y=2980 $dt=1
M5 6 AN VDD VDD pmos1v L=1e-07 W=3.6e-07 fw=3.6e-13 simw=3.6e-07 $X=2390 $Y=2980 $dt=1
.ends NOR2BXL

* +++++++++++++++++++++++++++++++++++++++++++++++++++++++++ *
* Sub cell: OA21X1                                          *
* +++++++++++++++++++++++++++++++++++++++++++++++++++++++++ *
.subckt OA21X1 A0 A1 VDD VSS B0 Y
** N=9 EP=6 FDC=8
M0 VSS A0 8 VSS nmos1v L=1e-07 W=2.4e-07 fw=2.4e-07 simw=2.4e-07 $X=710 $Y=1360 $dt=0
M1 8 A1 VSS VSS nmos1v L=1e-07 W=2.4e-07 fw=2.4e-07 simw=2.4e-07 $X=1580 $Y=1360 $dt=0
M2 7 B0 8 VSS nmos1v L=1e-07 W=2.4e-07 fw=2.4e-07 simw=2.4e-07 $X=2580 $Y=1360 $dt=0
M3 Y 7 VSS VSS nmos1v L=1e-07 W=4.3e-07 fw=4.3e-07 simw=4.3e-07 $X=4100 $Y=800 $dt=0
M4 9 A0 VDD VDD pmos1v L=1e-07 W=3.6e-07 fw=3.6e-13 simw=3.6e-07 $X=1140 $Y=3120 $dt=1
M5 7 A1 9 VDD pmos1v L=1e-07 W=3.6e-07 fw=3.6e-13 simw=3.6e-07 $X=1580 $Y=3120 $dt=1
M6 VDD B0 7 VDD pmos1v L=1e-07 W=3.6e-07 fw=3.6e-13 simw=3.6e-07 $X=2580 $Y=3120 $dt=1
M7 Y 7 VDD VDD pmos1v L=1e-07 W=6.5e-07 fw=6.5e-13 simw=6.5e-07 $X=3540 $Y=3120 $dt=1
.ends OA21X1

* +++++++++++++++++++++++++++++++++++++++++++++++++++++++++ *
* Sub cell: MXI2XL                                          *
* +++++++++++++++++++++++++++++++++++++++++++++++++++++++++ *
.subckt MXI2XL A Y VDD VSS S0 B
** N=11 EP=6 FDC=10
M0 8 A VSS VSS nmos1v L=1e-07 W=2.4e-07 fw=2.4e-07 simw=2.4e-07 $X=720 $Y=1320 $dt=0
M1 Y 7 8 VSS nmos1v L=1e-07 W=2.4e-07 fw=2.4e-07 simw=2.4e-07 $X=1160 $Y=1320 $dt=0
M2 9 S0 Y VSS nmos1v L=1e-07 W=2.4e-07 fw=2.4e-07 simw=2.4e-07 $X=2000 $Y=1320 $dt=0
M3 VSS B 9 VSS nmos1v L=1e-07 W=2.4e-07 fw=2.4e-07 simw=2.4e-07 $X=2460 $Y=1320 $dt=0
M4 7 S0 VSS VSS nmos1v L=1e-07 W=2.4e-07 fw=2.4e-07 simw=2.4e-07 $X=3300 $Y=1320 $dt=0
M5 10 A VDD VDD pmos1v L=1e-07 W=3.6e-07 fw=3.6e-13 simw=3.6e-07 $X=720 $Y=3700 $dt=1
M6 Y S0 10 VDD pmos1v L=1e-07 W=3.6e-07 fw=3.6e-13 simw=3.6e-07 $X=1160 $Y=3700 $dt=1
M7 11 7 Y VDD pmos1v L=1e-07 W=3.6e-07 fw=3.6e-13 simw=3.6e-07 $X=2000 $Y=3700 $dt=1
M8 VDD B 11 VDD pmos1v L=1e-07 W=3.6e-07 fw=3.6e-13 simw=3.6e-07 $X=2440 $Y=3700 $dt=1
M9 7 S0 VDD VDD pmos1v L=1e-07 W=3.6e-07 fw=3.6e-13 simw=3.6e-07 $X=3280 $Y=3700 $dt=1
.ends MXI2XL

* +++++++++++++++++++++++++++++++++++++++++++++++++++++++++ *
* Sub cell: AND3X1                                          *
* +++++++++++++++++++++++++++++++++++++++++++++++++++++++++ *
.subckt AND3X1 C B VDD VSS A Y
** N=9 EP=6 FDC=8
M0 8 C 7 VSS nmos1v L=1e-07 W=2.4e-07 fw=2.4e-07 simw=2.4e-07 $X=980 $Y=1360 $dt=0
M1 9 B 8 VSS nmos1v L=1e-07 W=2.4e-07 fw=2.4e-07 simw=2.4e-07 $X=1780 $Y=1360 $dt=0
M2 VSS A 9 VSS nmos1v L=1e-07 W=2.4e-07 fw=2.4e-07 simw=2.4e-07 $X=2260 $Y=1360 $dt=0
M3 Y 7 VSS VSS nmos1v L=1e-07 W=4.3e-07 fw=4.3e-07 simw=4.3e-07 $X=3220 $Y=980 $dt=0
M4 VDD C 7 VDD pmos1v L=1e-07 W=3.6e-07 fw=3.6e-13 simw=3.6e-07 $X=710 $Y=3150 $dt=1
M5 7 B VDD VDD pmos1v L=1e-07 W=3.6e-07 fw=3.6e-13 simw=3.6e-07 $X=1780 $Y=3150 $dt=1
M6 VDD A 7 VDD pmos1v L=1e-07 W=3.6e-07 fw=3.6e-13 simw=3.6e-07 $X=2620 $Y=3150 $dt=1
M7 Y 7 VDD VDD pmos1v L=1e-07 W=6.5e-07 fw=6.5e-13 simw=6.5e-07 $X=3460 $Y=2720 $dt=1
.ends AND3X1

* +++++++++++++++++++++++++++++++++++++++++++++++++++++++++ *
* Sub cell: AOI221XL                                        *
* +++++++++++++++++++++++++++++++++++++++++++++++++++++++++ *
.subckt AOI221XL A0 VDD VSS A1 B1 Y B0 C0
** N=12 EP=8 FDC=10
M0 9 A0 VSS VSS nmos1v L=1e-07 W=2.4e-07 fw=2.4e-07 simw=2.4e-07 $X=1070 $Y=800 $dt=0
M1 Y A1 9 VSS nmos1v L=1e-07 W=2.4e-07 fw=2.4e-07 simw=2.4e-07 $X=1510 $Y=800 $dt=0
M2 10 B1 Y VSS nmos1v L=1e-07 W=2.4e-07 fw=2.4e-07 simw=2.4e-07 $X=3050 $Y=800 $dt=0
M3 VSS B0 10 VSS nmos1v L=1e-07 W=2.4e-07 fw=2.4e-07 simw=2.4e-07 $X=3490 $Y=800 $dt=0
M4 Y C0 VSS VSS nmos1v L=1e-07 W=2.4e-07 fw=2.4e-07 simw=2.4e-07 $X=4330 $Y=800 $dt=0
M5 12 A0 VDD VDD pmos1v L=1e-07 W=3.6e-07 fw=3.6e-13 simw=3.6e-07 $X=670 $Y=3180 $dt=1
M6 VDD A1 12 VDD pmos1v L=1e-07 W=3.6e-07 fw=3.6e-13 simw=3.6e-07 $X=1510 $Y=3180 $dt=1
M7 12 B1 11 VDD pmos1v L=1e-07 W=3.6e-07 fw=3.6e-13 simw=3.6e-07 $X=3050 $Y=2840 $dt=1
M8 11 B0 12 VDD pmos1v L=1e-07 W=3.6e-07 fw=3.6e-13 simw=3.6e-07 $X=3890 $Y=2840 $dt=1
M9 Y C0 11 VDD pmos1v L=1e-07 W=3.6e-07 fw=3.6e-13 simw=3.6e-07 $X=4730 $Y=2840 $dt=1
.ends AOI221XL

* +++++++++++++++++++++++++++++++++++++++++++++++++++++++++ *
* Sub cell: BMXIX2                                          *
* +++++++++++++++++++++++++++++++++++++++++++++++++++++++++ *
.subckt BMXIX2 M0 S VDD VSS A M1 X2 PPN
** N=22 EP=8 FDC=30
M0 VSS M0 12 VSS nmos1v L=1e-07 W=2.4e-07 fw=2.4e-07 simw=2.4e-07 $X=710 $Y=1220 $dt=0
M1 13 S VSS VSS nmos1v L=1e-07 W=2.4e-07 fw=2.4e-07 simw=2.4e-07 $X=1550 $Y=1220 $dt=0
M2 14 12 13 VSS nmos1v L=1e-07 W=2.4e-07 fw=2.4e-07 simw=2.4e-07 $X=1990 $Y=1220 $dt=0
M3 15 M0 14 VSS nmos1v L=1e-07 W=2.4e-07 fw=2.4e-07 simw=2.4e-07 $X=2830 $Y=1220 $dt=0
M4 VSS A 15 VSS nmos1v L=1e-07 W=2.4e-07 fw=2.4e-07 simw=2.4e-07 $X=3270 $Y=1220 $dt=0
M5 16 A VSS VSS nmos1v L=1e-07 W=2.4e-07 fw=2.4e-07 simw=2.4e-07 $X=4990 $Y=1220 $dt=0
M6 17 M1 16 VSS nmos1v L=1e-07 W=2.4e-07 fw=2.4e-07 simw=2.4e-07 $X=5430 $Y=1220 $dt=0
M7 18 11 17 VSS nmos1v L=1e-07 W=2.4e-07 fw=2.4e-07 simw=2.4e-07 $X=6270 $Y=1220 $dt=0
M8 VSS S 18 VSS nmos1v L=1e-07 W=2.4e-07 fw=2.4e-07 simw=2.4e-07 $X=6710 $Y=1220 $dt=0
M9 11 M1 VSS VSS nmos1v L=1e-07 W=2.4e-07 fw=2.4e-07 simw=2.4e-07 $X=7790 $Y=1240 $dt=0
M10 9 X2 14 VSS nmos1v L=1e-07 W=2.4e-07 fw=2.4e-07 simw=2.4e-07 $X=9630 $Y=1260 $dt=0
M11 17 10 9 VSS nmos1v L=1e-07 W=2.4e-07 fw=2.4e-07 simw=2.4e-07 $X=10470 $Y=1260 $dt=0
M12 VSS X2 10 VSS nmos1v L=1e-07 W=2.4e-07 fw=2.4e-07 simw=2.4e-07 $X=12090 $Y=1340 $dt=0
M13 PPN 9 VSS VSS nmos1v L=1e-07 W=4.3e-07 fw=4.3e-07 simw=4.3e-07 $X=13170 $Y=960 $dt=0
M14 VSS 9 PPN VSS nmos1v L=1e-07 W=4.3e-07 fw=4.3e-07 simw=4.3e-07 $X=14010 $Y=960 $dt=0
M15 VDD M0 12 VDD pmos1v L=1e-07 W=3.6e-07 fw=3.6e-13 simw=3.6e-07 $X=1030 $Y=3460 $dt=1
M16 19 S VDD VDD pmos1v L=1e-07 W=3.6e-07 fw=3.6e-13 simw=3.6e-07 $X=1870 $Y=3460 $dt=1
M17 14 M0 19 VDD pmos1v L=1e-07 W=3.6e-07 fw=3.6e-13 simw=3.6e-07 $X=2310 $Y=3460 $dt=1
M18 20 12 14 VDD pmos1v L=1e-07 W=3.6e-07 fw=3.6e-13 simw=3.6e-07 $X=3150 $Y=3460 $dt=1
M19 VDD A 20 VDD pmos1v L=1e-07 W=3.6e-07 fw=3.6e-13 simw=3.6e-07 $X=3590 $Y=3460 $dt=1
M20 21 A VDD VDD pmos1v L=1e-07 W=3.6e-07 fw=3.6e-13 simw=3.6e-07 $X=4670 $Y=3460 $dt=1
M21 17 11 21 VDD pmos1v L=1e-07 W=3.6e-07 fw=3.6e-13 simw=3.6e-07 $X=5110 $Y=3460 $dt=1
M22 22 M1 17 VDD pmos1v L=1e-07 W=3.6e-07 fw=3.6e-13 simw=3.6e-07 $X=5950 $Y=3220 $dt=1
M23 VDD S 22 VDD pmos1v L=1e-07 W=3.6e-07 fw=3.6e-13 simw=3.6e-07 $X=6710 $Y=3220 $dt=1
M24 11 M1 VDD VDD pmos1v L=1e-07 W=3.6e-07 fw=3.6e-13 simw=3.6e-07 $X=7790 $Y=3020 $dt=1
M25 9 10 14 VDD pmos1v L=1e-07 W=3.6e-07 fw=3.6e-13 simw=3.6e-07 $X=9590 $Y=3060 $dt=1
M26 17 X2 9 VDD pmos1v L=1e-07 W=3.6e-07 fw=3.6e-13 simw=3.6e-07 $X=10470 $Y=3060 $dt=1